======================================================================================================================
DESCRIPTION:

MB-37026: Ensure cbcollect index entries end with a newline

When retrieved, some cbcollect index entries don't end with a new
line.  This means that following section divider doesn't begin on a
new line.  In such cases, append a new line to the index entry.

Change-Id: Ifbef400a4bab7158bdeb8722dbbc8261d65857cf

======================================================================================================================
COMMENTS
======================================================================================================================
Author: Sam Cramer
Date: 2021-01-20 20:58:17.000000000
Message: 
Uploaded patch set 2: Commit message was updated.
----------------------------------------------------------------------------------------------------------------------
Author: Build Bot
Date: 2021-01-20 20:58:31.000000000
Message: 
Patch Set 2: -Well-Formed

Build Started http://cv.jenkins.couchbase.com/job/ns-server-test/21226/
----------------------------------------------------------------------------------------------------------------------
Author: Build Bot
Date: 2021-01-20 21:02:17.000000000
Message: 
Patch Set 2: Well-Formed+1

Permission granted to commit to restricted branch
----------------------------------------------------------------------------------------------------------------------
Author: Sam Cramer
Date: 2021-01-20 21:06:23.000000000
Message: 
Patch Set 2: Verified+1

make simple-test
----------------------------------------------------------------------------------------------------------------------
Author: Build Bot
Date: 2021-01-20 21:06:31.000000000
Message: 
Patch Set 2:

Build Started http://cv.jenkins.couchbase.com/job/ns-server-simple-test/1894/
----------------------------------------------------------------------------------------------------------------------
Author: Build Bot
Date: 2021-01-20 21:42:17.000000000
Message: 
Patch Set 2: Verified-1

Build Failed 

http://cv.jenkins.couchbase.com/job/ns-server-simple-test/1894/ : FAILURE

ERROR: rebalance_in_with_ops (rebalance.rebalancein.RebalanceInTests)
 ( http://cv.jenkins.couchbase.com/job/ns-server-simple-test/1894/ )
----------------------------------------------------------------------------------------------------------------------
Author: Sam Cramer
Date: 2021-01-21 00:12:48.000000000
Message: 
Patch Set 2:

make simple-test
----------------------------------------------------------------------------------------------------------------------
Author: Build Bot
Date: 2021-01-21 00:12:57.000000000
Message: 
Patch Set 2:

Build Started http://cv.jenkins.couchbase.com/job/ns-server-simple-test/1896/
----------------------------------------------------------------------------------------------------------------------
Author: Build Bot
Date: 2021-01-21 00:37:15.000000000
Message: 
Patch Set 2: Verified+1

Build Successful 

http://cv.jenkins.couchbase.com/job/ns-server-simple-test/1896/ : SUCCESS
----------------------------------------------------------------------------------------------------------------------
Author: Steve Watanabe
Date: 2021-01-21 01:26:12.000000000
Message: 
Patch Set 2:

(1 comment)
Line:469, cbcollect_info -> This feels a little hokey though, top of mind, I don't have a better solution.
Also on a cbcollect I looked at I see that these also have the same issue

Manifest file
cat '/opt/couchbase/manifest.xml'

ale configuration
curl -sS --proxy  -K- http://127.0.0.1:8091/diag/ale

----------------------------------------------------------------------------------------------------------------------
Author: Dave Finlay
Date: 2021-01-21 01:33:51.000000000
Message: 
Patch Set 2:

(1 comment)
Line:469, cbcollect_info -> I'd suggest adding a new variable "last_data_written" which we update to be equal to the data byte array after we've written it. In this way, in cases where we cleanly exit from the while loop we just check to see whether the last element of the bytearray is a b'\n'. If it's not, we add one, else we do nothing. In cases where we don't cleanly exit from the while loop also do nothing, which will probably require some catch clause, but seems like it should also be straightforward. 

No need to seek backwards in the pipe, which seems a bit funny to me. It seems like it might not be guaranteed to work in every case, though I haven't looked at the python docs on this. But in any case, it's easily avoidable.

----------------------------------------------------------------------------------------------------------------------
Author: Sam Cramer
Date: 2021-01-29 22:53:09.000000000
MISMATCHED INLINE COMMENT
Line:469, cbcollect_info -> Done
----------------------------------------------------------------------------------------------------------------------
Author: Sam Cramer
Date: 2021-01-25 04:13:18.000000000
MISMATCHED INLINE COMMENT
Line:469, cbcollect_info -> I couldn't figure out a cleaner way than taking explicit action in these cases.

The pipes were all seekable, but I agree that recording the last character written is cleaner.

I added code to append newlines to manifest.xml and ale configuration output if necessary.
----------------------------------------------------------------------------------------------------------------------
